
 OpenBabel12102219383D

  5  4  0  0  0  0  0  0  0  0999 V2000
    0.9643    0.0433   -0.0827 C   0  0  0  0  0  0  0  0  0  0  0  0
    2.0565    0.0433   -0.0827 H   0  0  0  0  0  0  0  0  0  0  0  0
    0.6002   -0.8337   -0.6224 H   0  0  0  0  0  0  0  0  0  0  0  0
    0.6002    0.9491   -0.5725 H   0  0  0  0  0  0  0  0  0  0  0  0
    0.6002    0.0145    0.9466 H   0  0  0  0  0  0  0  0  0  0  0  0
  1  2  1  0  0  0  0
  1  3  1  0  0  0  0
  1  4  1  0  0  0  0
  1  5  1  0  0  0  0
M  END
$$$$
